<?xml version="1.0" encoding="UTF-8"?>

<!-- generated on 07/11/16 15:48:33 by SUMO netconvert Version 0.26.0
<?xml version="1.0" encoding="UTF-8"?>

<configuration xmlns:xsi="http://www.w3.org/2001/XMLSchema-instance" xsi:noNamespaceSchemaLocation="http://sumo.dlr.de/xsd/netconvertConfiguration.xsd">

    <input>
        <type-files value="C:\sumo\/data/typemap/osmNetconvert.typ.xml"/>
        <osm-files value="map.osm"/>
    </input>

    <output>
        <output-file value="CalleCali.net.xml"/>
    </output>

    <projection>
        <proj.utm value="true"/>
    </projection>

</configuration>
-->

<net version="0.25" xmlns:xsi="http://www.w3.org/2001/XMLSchema-instance" xsi:noNamespaceSchemaLocation="http://sumo.dlr.de/xsd/net_file.xsd">

    <location netOffset="-328660.44,-363356.18" convBoundary="0.00,0.00,5646.52,10299.58" origBoundary="-76.554336,3.286191,-76.491355,3.387130" projParameter="+proj=utm +zone=18 +ellps=WGS84 +datum=WGS84 +units=m +no_defs"/>

    <type id="highway.bridleway" priority="1" numLanes="1" speed="2.78" allow="pedestrian" oneway="1" width="2.00"/>
    <type id="highway.bus_guideway" priority="1" numLanes="1" speed="8.33" allow="bus" oneway="1"/>
    <type id="highway.cycleway" priority="1" numLanes="1" speed="5.56" allow="bicycle" oneway="0" width="1.00"/>
    <type id="highway.footway" priority="1" numLanes="1" speed="8.33" allow="pedestrian" oneway="1" width="2.00"/>
    <type id="highway.ford" priority="1" numLanes="1" speed="2.78" allow="army" oneway="0"/>
    <type id="highway.living_street" priority="3" numLanes="1" speed="2.78" disallow="tram rail_urban rail rail_electric ship" oneway="0"/>
    <type id="highway.motorway" priority="13" numLanes="2" speed="44.44" allow="private emergency authority army vip passenger hov taxi bus coach delivery truck trailer motorcycle evehicle custom1 custom2" oneway="1"/>
    <type id="highway.motorway_link" priority="12" numLanes="1" speed="22.22" allow="private emergency authority army vip passenger hov taxi bus coach delivery truck trailer motorcycle evehicle custom1 custom2" oneway="1"/>
    <type id="highway.path" priority="1" numLanes="1" speed="2.78" allow="bicycle pedestrian" oneway="1" width="2.00"/>
    <type id="highway.pedestrian" priority="1" numLanes="1" speed="8.33" allow="pedestrian" oneway="1" width="2.00"/>
    <type id="highway.primary" priority="9" numLanes="2" speed="27.78" disallow="tram rail_urban rail rail_electric ship" oneway="0"/>
    <type id="highway.primary_link" priority="8" numLanes="1" speed="22.22" disallow="tram rail_urban rail rail_electric ship" oneway="0"/>
    <type id="highway.raceway" priority="14" numLanes="2" speed="83.33" allow="vip" oneway="0"/>
    <type id="highway.residential" priority="4" numLanes="1" speed="13.89" disallow="tram rail_urban rail rail_electric ship" oneway="0"/>
    <type id="highway.secondary" priority="7" numLanes="2" speed="27.78" disallow="tram rail_urban rail rail_electric ship" oneway="0"/>
    <type id="highway.secondary_link" priority="6" numLanes="1" speed="22.22" disallow="tram rail_urban rail rail_electric ship" oneway="0"/>
    <type id="highway.service" priority="2" numLanes="1" speed="5.56" allow="delivery bicycle pedestrian" oneway="0"/>
    <type id="highway.services" priority="1" numLanes="1" speed="8.33" disallow="tram rail_urban rail rail_electric ship" oneway="0"/>
    <type id="highway.stairs" priority="1" numLanes="1" speed="1.39" allow="pedestrian" oneway="1" width="2.00"/>
    <type id="highway.step" priority="1" numLanes="1" speed="1.39" allow="pedestrian" oneway="1" width="2.00"/>
    <type id="highway.steps" priority="1" numLanes="1" speed="1.39" allow="pedestrian" oneway="1" width="2.00"/>
    <type id="highway.tertiary" priority="6" numLanes="1" speed="22.22" disallow="tram rail_urban rail rail_electric ship" oneway="0"/>
    <type id="highway.tertiary_link" priority="5" numLanes="1" speed="22.22" disallow="tram rail_urban rail rail_electric ship" oneway="0"/>
    <type id="highway.track" priority="1" numLanes="1" speed="5.56" disallow="tram rail_urban rail rail_electric ship" oneway="0"/>
    <type id="highway.trunk" priority="11" numLanes="2" speed="27.78" disallow="tram rail_urban rail rail_electric bicycle pedestrian ship" oneway="0"/>
    <type id="highway.trunk_link" priority="10" numLanes="1" speed="22.22" disallow="tram rail_urban rail rail_electric bicycle pedestrian ship" oneway="0"/>
    <type id="highway.unclassified" priority="5" numLanes="1" speed="13.89" disallow="tram rail_urban rail rail_electric ship" oneway="0"/>
    <type id="highway.unsurfaced" priority="1" numLanes="1" speed="8.33" disallow="tram rail_urban rail rail_electric ship" oneway="0"/>
    <type id="railway.light_rail" priority="15" numLanes="1" speed="27.78" allow="rail_urban" oneway="1"/>
    <type id="railway.preserved" priority="15" numLanes="1" speed="27.78" allow="rail" oneway="1"/>
    <type id="railway.rail" priority="15" numLanes="1" speed="83.33" allow="rail rail_electric" oneway="1"/>
    <type id="railway.subway" priority="15" numLanes="1" speed="27.78" allow="rail_urban" oneway="1"/>
    <type id="railway.tram" priority="15" numLanes="1" speed="13.89" allow="tram" oneway="1"/>

    <edge id=":1367844226_0" function="internal">
        <lane id=":1367844226_0_0" index="0" disallow="tram rail_urban rail rail_electric ship" speed="13.89" length="0.77" shape="1468.96,8489.11 1468.30,8489.51"/>
    </edge>
    <edge id=":1367844226_1" function="internal">
        <lane id=":1367844226_1_0" index="0" disallow="tram rail_urban rail rail_electric ship" speed="13.89" length="2.00" shape="1468.96,8489.11 1467.54,8488.68 1467.19,8488.30"/>
    </edge>
    <edge id=":1367844226_4" function="internal">
        <lane id=":1367844226_4_0" index="0" speed="13.89" length="2.82" shape="1467.19,8488.30 1466.91,8488.01 1467.06,8487.10 1468.01,8485.95"/>
    </edge>
    <edge id=":1367844226_2" function="internal">
        <lane id=":1367844226_2_0" index="0" disallow="tram rail_urban rail rail_electric ship" speed="13.89" length="2.36" shape="1465.98,8487.16 1468.01,8485.95"/>
    </edge>
    <edge id=":1367844226_3" function="internal">
        <lane id=":1367844226_3_0" index="0" disallow="tram rail_urban rail rail_electric ship" speed="13.89" length="2.41" shape="1465.98,8487.16 1467.44,8486.88 1468.31,8487.17"/>
    </edge>
    <edge id=":1367844226_5" function="internal">
        <lane id=":1367844226_5_0" index="0" speed="13.89" length="2.41" shape="1468.31,8487.17 1468.60,8488.05 1468.30,8489.51"/>
    </edge>
    <edge id=":1367844232_0" function="internal">
        <lane id=":1367844232_0_0" index="0" disallow="tram rail_urban rail rail_electric ship" speed="13.89" length="4.82" shape="1425.50,8328.07 1426.32,8326.83 1427.15,8326.42 1427.97,8326.84 1428.80,8328.08"/>
    </edge>
    <edge id=":1367844243_0" function="internal">
        <lane id=":1367844243_0_0" index="0" disallow="tram rail_urban rail rail_electric ship" speed="13.89" length="4.82" shape="1196.37,8444.05 1195.49,8442.86 1195.38,8441.94 1196.05,8441.31 1197.49,8440.95"/>
    </edge>
    <edge id=":1367844244_0" function="internal">
        <lane id=":1367844244_0_0" index="0" disallow="tram rail_urban rail rail_electric ship" speed="13.89" length="4.82" shape="1249.53,8296.52 1248.93,8295.16 1249.03,8294.24 1249.82,8293.77 1251.31,8293.74"/>
    </edge>
    <edge id=":1367844245_0" function="internal">
        <lane id=":1367844245_0_0" index="0" disallow="tram rail_urban rail rail_electric ship" speed="13.89" length="10.70" shape="1428.85,8411.03 1426.25,8409.37 1424.34,8408.15 1422.43,8406.93 1419.83,8405.27"/>
    </edge>
    <edge id=":1367844245_1" function="internal">
        <lane id=":1367844245_1_0" index="0" disallow="tram rail_urban rail rail_electric ship" speed="13.89" length="4.57" shape="1428.85,8411.03 1427.30,8409.52 1426.25,8407.35"/>
    </edge>
    <edge id=":1367844245_2" function="internal">
        <lane id=":1367844245_2_0" index="0" disallow="tram rail_urban rail rail_electric ship" speed="13.89" length="2.41" shape="1428.85,8411.03 1428.25,8409.67 1428.35,8408.75"/>
    </edge>
    <edge id=":1367844245_9" function="internal">
        <lane id=":1367844245_9_0" index="0" speed="13.89" length="6.99" shape="1426.25,8407.35 1426.21,8407.26 1425.55,8404.24 1425.34,8400.45"/>
    </edge>
    <edge id=":1367844245_10" function="internal">
        <lane id=":1367844245_10_0" index="0" speed="13.89" length="2.41" shape="1428.35,8408.75 1429.14,8408.28 1430.63,8408.25"/>
    </edge>
    <edge id=":1367844245_3" function="internal">
        <lane id=":1367844245_3_0" index="0" disallow="tram rail_urban rail rail_electric ship" speed="13.89" length="8.28" shape="1428.64,8400.46 1428.76,8403.39 1429.13,8405.66 1429.75,8407.29 1430.63,8408.25"/>
    </edge>
    <edge id=":1367844245_4" function="internal">
        <lane id=":1367844245_4_0" index="0" disallow="tram rail_urban rail rail_electric ship" speed="13.89" length="14.00" shape="1428.64,8400.46 1428.08,8404.67 1426.43,8406.87 1423.68,8407.07 1419.83,8405.27"/>
    </edge>
    <edge id=":1367844245_5" function="internal">
        <lane id=":1367844245_5_0" index="0" disallow="tram rail_urban rail rail_electric ship" speed="13.89" length="4.82" shape="1428.64,8400.46 1427.81,8401.70 1426.98,8402.11 1426.16,8401.69 1425.34,8400.45"/>
    </edge>
    <edge id=":1367844245_6" function="internal">
        <lane id=":1367844245_6_0" index="0" disallow="tram rail_urban rail rail_electric ship" speed="13.89" length="5.93" shape="1421.61,8402.49 1423.24,8403.25 1424.40,8403.17 1425.10,8402.24 1425.34,8400.45"/>
    </edge>
    <edge id=":1367844245_7" function="internal">
        <lane id=":1367844245_7_0" index="0" disallow="tram rail_urban rail rail_electric ship" speed="13.89" length="10.70" shape="1421.61,8402.49 1424.20,8404.15 1426.12,8405.37 1428.03,8406.59 1430.63,8408.25"/>
    </edge>
    <edge id=":1367844245_8" function="internal">
        <lane id=":1367844245_8_0" index="0" disallow="tram rail_urban rail rail_electric ship" speed="13.89" length="2.41" shape="1421.61,8402.49 1422.21,8403.85 1422.11,8404.77"/>
    </edge>
    <edge id=":1367844245_11" function="internal">
        <lane id=":1367844245_11_0" index="0" speed="13.89" length="2.41" shape="1422.11,8404.77 1421.32,8405.24 1419.83,8405.27"/>
    </edge>
    <edge id=":1418901041_0" function="internal">
        <lane id=":1418901041_0_0" index="0" disallow="tram rail_urban rail rail_electric ship" speed="13.89" length="4.82" shape="3109.57,8928.17 3110.81,8928.99 3111.23,8929.81 3110.82,8930.64 3109.58,8931.47"/>
    </edge>
    <edge id=":1420584982_0" function="internal">
        <lane id=":1420584982_0_0" index="0" disallow="tram rail_urban rail rail_electric ship" speed="13.89" length="4.82" shape="2845.23,9215.01 2846.47,9215.83 2846.88,9216.66 2846.47,9217.48 2845.23,9218.31"/>
    </edge>
    <edge id=":1420584986_0" function="internal">
        <lane id=":1420584986_0_0" index="0" disallow="tram rail_urban rail rail_electric ship" speed="13.89" length="4.82" shape="2845.09,8804.68 2846.32,8805.51 2846.73,8806.34 2846.31,8807.16 2845.07,8807.98"/>
    </edge>
    <edge id=":1420584987_0" function="internal">
        <lane id=":1420584987_0_0" index="0" disallow="tram rail_urban rail rail_electric ship" speed="13.89" length="4.82" shape="2846.46,8679.83 2847.69,8680.66 2848.10,8681.49 2847.69,8682.31 2846.45,8683.13"/>
    </edge>
    <edge id=":1420585004_0" function="internal">
        <lane id=":1420585004_0_0" index="0" disallow="tram rail_urban rail rail_electric ship" speed="13.89" length="9.46" shape="2212.21,9038.51 2203.13,9035.85"/>
    </edge>
    <edge id=":1420585004_1" function="internal">
        <lane id=":1420585004_1_0" index="0" disallow="tram rail_urban rail rail_electric ship" speed="13.89" length="4.82" shape="2212.21,9038.51 2211.24,9037.38 2211.07,9036.47 2211.69,9035.79 2213.10,9035.33"/>
    </edge>
    <edge id=":1420585004_2" function="internal">
        <lane id=":1420585004_2_0" index="0" disallow="tram rail_urban rail rail_electric ship" speed="13.89" length="9.38" shape="2204.09,9032.70 2213.10,9035.33"/>
    </edge>
    <edge id=":1420585004_3" function="internal">
        <lane id=":1420585004_3_0" index="0" disallow="tram rail_urban rail rail_electric ship" speed="13.89" length="4.82" shape="2204.09,9032.70 2205.04,9033.85 2205.19,9034.76 2204.55,9035.42 2203.13,9035.85"/>
    </edge>
    <edge id=":1420585004_4" function="internal">
        <lane id=":1420585004_4_0" index="0" disallow="tram rail_urban rail rail_electric ship" speed="13.89" length="5.10" shape="2205.22,9039.85 2205.39,9038.43 2205.10,9037.29 2204.35,9036.43 2203.13,9035.85"/>
    </edge>
    <edge id=":1420585004_5" function="internal">
        <lane id=":1420585004_5_0" index="0" disallow="tram rail_urban rail rail_electric ship" speed="13.89" length="7.89" shape="2208.41,9040.69 2209.31,9038.02 2210.40,9036.24 2211.66,9035.34 2213.10,9035.33"/>
    </edge>
    <edge id=":1420585007_0" function="internal">
        <lane id=":1420585007_0_0" index="0" disallow="tram rail_urban rail rail_electric ship" speed="13.89" length="6.05" shape="2257.94,9049.95 2256.53,9049.78 2255.38,9050.26 2254.47,9051.41 2253.80,9053.21"/>
    </edge>
    <edge id=":1420585007_1" function="internal">
        <lane id=":1420585007_1_0" index="0" disallow="tram rail_urban rail rail_electric ship" speed="13.89" length="9.62" shape="2257.94,9049.95 2248.41,9048.61"/>
    </edge>
    <edge id=":1420585007_2" function="internal">
        <lane id=":1420585007_2_0" index="0" disallow="tram rail_urban rail rail_electric ship" speed="13.89" length="2.66" shape="2249.29,9045.43 2250.45,9046.17 2250.96,9047.36"/>
    </edge>
    <edge id=":1420585007_3" function="internal">
        <lane id=":1420585007_3_0" index="0" disallow="tram rail_urban rail rail_electric ship" speed="13.89" length="2.22" shape="2249.29,9045.43 2250.26,9046.56 2250.40,9047.28"/>
    </edge>
    <edge id=":1420585007_4" function="internal">
        <lane id=":1420585007_4_0" index="0" speed="13.89" length="5.11" shape="2250.96,9047.36 2251.05,9047.58 2251.11,9049.65 2250.60,9052.40"/>
    </edge>
    <edge id=":1420585007_5" function="internal">
        <lane id=":1420585007_5_0" index="0" speed="13.89" length="2.60" shape="2250.40,9047.28 2250.44,9047.47 2249.82,9048.15 2248.41,9048.61"/>
    </edge>
    <edge id=":1420585009_0" function="internal">
        <lane id=":1420585009_0_0" index="0" disallow="tram rail_urban rail rail_electric ship" speed="25.00" length="19.23" shape="1925.78,8921.92 1926.08,8927.45 1927.29,8931.11 1929.38,8934.56 1932.30,8939.46"/>
        <lane id=":1420585009_0_1" index="1" disallow="tram rail_urban rail rail_electric ship" speed="25.00" length="19.23" shape="1925.78,8921.92 1925.58,8927.65 1925.69,8931.66 1926.69,8935.46 1929.14,8940.55"/>
    </edge>
    <edge id=":1420585009_2" function="internal">
        <lane id=":1420585009_2_0" index="0" disallow="tram rail_urban rail rail_electric ship" speed="27.78" length="19.30" shape="1925.78,8921.92 1925.64,8927.65 1925.53,8931.57 1925.42,8935.49 1925.25,8941.21"/>
        <lane id=":1420585009_2_1" index="1" disallow="tram rail_urban rail rail_electric ship" speed="27.78" length="19.30" shape="1922.48,8921.84 1922.34,8927.56 1922.23,8931.48 1922.12,8935.40 1921.96,8941.12"/>
    </edge>
    <edge id=":1420585032_0" function="internal">
        <lane id=":1420585032_0_0" index="0" disallow="tram rail_urban rail rail_electric ship" speed="13.89" length="5.22" shape="2169.17,8605.06 2167.71,8604.86 2166.62,8605.20 2165.90,8606.08 2165.53,8607.50"/>
    </edge>
    <edge id=":1420585032_1" function="internal">
        <lane id=":1420585032_1_0" index="0" disallow="tram rail_urban rail rail_electric ship" speed="13.89" length="9.41" shape="2169.17,8605.06 2160.32,8601.85"/>
    </edge>
    <edge id=":1420585032_2" function="internal">
        <lane id=":1420585032_2_0" index="0" disallow="tram rail_urban rail rail_electric ship" speed="13.89" length="2.58" shape="2169.17,8605.06 2168.20,8603.92 2168.03,8603.02 2168.15,8602.89"/>
    </edge>
    <edge id=":1420585032_9" function="internal">
        <lane id=":1420585032_9_0" index="0" speed="13.89" length="2.24" shape="2168.15,8602.89 2168.66,8602.34 2170.08,8601.89"/>
    </edge>
    <edge id=":1420585032_3" function="internal">
        <lane id=":1420585032_3_0" index="0" disallow="tram rail_urban rail rail_electric ship" speed="13.89" length="8.87" shape="2161.73,8598.87 2170.08,8601.89"/>
    </edge>
    <edge id=":1420585032_4" function="internal">
        <lane id=":1420585032_4_0" index="0" disallow="tram rail_urban rail rail_electric ship" speed="13.89" length="4.18" shape="2161.73,8598.87 2163.66,8600.21 2164.68,8601.73"/>
    </edge>
    <edge id=":1420585032_5" function="internal">
        <lane id=":1420585032_5_0" index="0" disallow="tram rail_urban rail rail_electric ship" speed="13.89" length="2.29" shape="2161.73,8598.87 2162.50,8600.15 2162.51,8600.95"/>
    </edge>
    <edge id=":1420585032_10" function="internal">
        <lane id=":1420585032_10_0" index="0" speed="13.89" length="5.93" shape="2164.68,8601.73 2164.93,8602.10 2165.56,8604.53 2165.53,8607.50"/>
    </edge>
    <edge id=":1420585032_11" function="internal">
        <lane id=":1420585032_11_0" index="0" speed="13.89" length="2.53" shape="2162.51,8600.95 2162.51,8601.07 2161.79,8601.64 2160.32,8601.85"/>
    </edge>
    <edge id=":1420585032_6" function="internal">
        <lane id=":1420585032_6_0" index="0" disallow="tram rail_urban rail rail_electric ship" speed="13.89" length="6.02" shape="2162.25,8607.15 2162.30,8605.26 2161.99,8603.74 2161.33,8602.61 2160.32,8601.85"/>
    </edge>
    <edge id=":1420585032_7" function="internal">
        <lane id=":1420585032_7_0" index="0" disallow="tram rail_urban rail rail_electric ship" speed="13.89" length="11.24" shape="2162.25,8607.15 2163.03,8604.09 2164.60,8602.19 2166.94,8601.46 2170.08,8601.89"/>
    </edge>
    <edge id=":1420585032_8" function="internal">
        <lane id=":1420585032_8_0" index="0" disallow="tram rail_urban rail rail_electric ship" speed="13.89" length="4.82" shape="2162.25,8607.15 2163.20,8606.01 2164.07,8605.69 2164.84,8606.19 2165.53,8607.50"/>
    </edge>
    <edge id=":1420585033_0" function="internal">
        <lane id=":1420585033_0_0" index="0" disallow="tram rail_urban rail rail_electric ship" speed="13.89" length="5.26" shape="2302.84,8643.50 2301.38,8643.27 2300.28,8643.59 2299.55,8644.48 2299.20,8645.92"/>
    </edge>
    <edge id=":1420585033_1" function="internal">
        <lane id=":1420585033_1_0" index="0" disallow="tram rail_urban rail rail_electric ship" speed="13.89" length="9.65" shape="2302.84,8643.50 2293.59,8640.73"/>
    </edge>
    <edge id=":1420585033_2" function="internal">
        <lane id=":1420585033_2_0" index="0" disallow="tram rail_urban rail rail_electric ship" speed="13.89" length="2.41" shape="2302.84,8643.50 2301.90,8642.34 2301.75,8641.43"/>
    </edge>
    <edge id=":1420585033_9" function="internal">
        <lane id=":1420585033_9_0" index="0" speed="13.89" length="2.41" shape="2301.75,8641.43 2302.39,8640.77 2303.81,8640.34"/>
    </edge>
    <edge id=":1420585033_3" function="internal">
        <lane id=":1420585033_3_0" index="0" disallow="tram rail_urban rail rail_electric ship" speed="13.89" length="9.72" shape="2294.50,8637.56 2303.81,8640.34"/>
    </edge>
    <edge id=":1420585033_4" function="internal">
        <lane id=":1420585033_4_0" index="0" disallow="tram rail_urban rail rail_electric ship" speed="13.89" length="4.90" shape="2294.50,8637.56 2296.81,8638.66 2298.36,8640.42"/>
    </edge>
    <edge id=":1420585033_5" function="internal">
        <lane id=":1420585033_5_0" index="0" disallow="tram rail_urban rail rail_electric ship" speed="13.89" length="2.41" shape="2294.50,8637.56 2295.46,8638.70 2295.63,8639.60"/>
    </edge>
    <edge id=":1420585033_10" function="internal">
        <lane id=":1420585033_10_0" index="0" speed="13.89" length="5.63" shape="2298.36,8640.42 2299.16,8642.84 2299.20,8645.92"/>
    </edge>
    <edge id=":1420585033_11" function="internal">
        <lane id=":1420585033_11_0" index="0" speed="13.89" length="2.41" shape="2295.63,8639.60 2295.01,8640.28 2293.59,8640.73"/>
    </edge>
    <edge id=":1420585033_6" function="internal">
        <lane id=":1420585033_6_0" index="0" disallow="tram rail_urban rail rail_electric ship" speed="13.89" length="5.89" shape="2295.91,8645.60 2295.92,8643.76 2295.53,8642.34 2294.76,8641.33 2293.59,8640.73"/>
    </edge>
    <edge id=":1420585033_7" function="internal">
        <lane id=":1420585033_7_0" index="0" disallow="tram rail_urban rail rail_electric ship" speed="13.89" length="11.40" shape="2295.91,8645.60 2296.68,8642.47 2298.26,8640.55 2300.63,8639.84 2303.81,8640.34"/>
    </edge>
    <edge id=":1420585033_8" function="internal">
        <lane id=":1420585033_8_0" index="0" disallow="tram rail_urban rail rail_electric ship" speed="13.89" length="4.82" shape="2295.91,8645.60 2296.86,8644.45 2297.72,8644.12 2298.50,8644.61 2299.20,8645.92"/>
    </edge>
    <edge id=":1420633948_0" function="internal">
        <lane id=":1420633948_0_0" index="0" disallow="tram rail_urban rail rail_electric ship" speed="20.84" length="5.20" shape="1355.55,8901.59 1354.37,8902.44 1353.81,8903.43 1353.87,8904.57 1354.57,8905.86"/>
    </edge>
    <edge id=":1420633948_1" function="internal">
        <lane id=":1420633948_1_0" index="0" disallow="tram rail_urban rail rail_electric ship" speed="13.89" length="4.82" shape="1355.55,8901.59 1354.08,8901.42 1353.33,8900.88 1353.32,8899.96 1354.04,8898.66"/>
    </edge>
    <edge id=":1420633948_2" function="internal">
        <lane id=":1420633948_2_0" index="0" disallow="tram rail_urban rail rail_electric ship" speed="20.84" length="5.65" shape="1348.98,8898.00 1349.91,8898.95 1351.06,8899.38 1352.44,8899.28 1354.04,8898.66"/>
    </edge>
    <edge id=":1420633948_3" function="internal">
        <lane id=":1420633948_3_0" index="0" disallow="tram rail_urban rail rail_electric ship" speed="27.78" length="9.71" shape="1348.98,8898.00 1354.57,8905.86"/>
        <lane id=":1420633948_3_1" index="1" disallow="tram rail_urban rail rail_electric ship" speed="27.78" length="9.71" shape="1346.25,8899.84 1351.92,8907.82"/>
    </edge>
    <edge id=":1420633949_0" function="internal">
        <lane id=":1420633949_0_0" index="0" disallow="tram rail_urban rail rail_electric ship" speed="13.89" length="5.07" shape="1546.65,8809.13 1545.86,8808.01 1544.89,8807.42 1543.74,8807.34 1542.40,8807.79"/>
    </edge>
    <edge id=":1420633949_1" function="internal">
        <lane id=":1420633949_1_0" index="0" disallow="tram rail_urban rail rail_electric ship" speed="13.89" length="9.54" shape="1546.65,8809.13 1542.28,8800.66"/>
    </edge>
    <edge id=":1420633949_2" function="internal">
        <lane id=":1420633949_2_0" index="0" disallow="tram rail_urban rail rail_electric ship" speed="13.89" length="2.41" shape="1546.65,8809.13 1546.83,8807.66 1547.38,8806.92"/>
    </edge>
    <edge id=":1420633949_9" function="internal">
        <lane id=":1420633949_9_0" index="0" speed="13.89" length="2.41" shape="1547.38,8806.92 1548.30,8806.92 1549.60,8807.65"/>
    </edge>
    <edge id=":1420633949_3" function="internal">
        <lane id=":1420633949_3_0" index="0" disallow="tram rail_urban rail rail_electric ship" speed="13.89" length="9.61" shape="1545.19,8799.12 1549.60,8807.65"/>
    </edge>
    <edge id=":1420633949_4" function="internal">
        <lane id=":1420633949_4_0" index="0" disallow="tram rail_urban rail rail_electric ship" speed="13.89" length="5.37" shape="1545.19,8799.12 1546.16,8801.82 1546.02,8804.17 1545.95,8804.29"/>
    </edge>
    <edge id=":1420633949_5" function="internal">
        <lane id=":1420633949_5_0" index="0" disallow="tram rail_urban rail rail_electric ship" speed="13.89" length="2.41" shape="1545.19,8799.12 1545.04,8800.60 1544.51,8801.35"/>
    </edge>
    <edge id=":1420633949_10" function="internal">
        <lane id=":1420633949_10_0" index="0" speed="13.89" length="5.08" shape="1545.95,8804.29 1544.77,8806.16 1542.40,8807.79"/>
    </edge>
    <edge id=":1420633949_11" function="internal">
        <lane id=":1420633949_11_0" index="0" speed="13.89" length="2.41" shape="1544.51,8801.35 1543.58,8801.37 1542.28,8800.66"/>
    </edge>
    <edge id=":1420633949_6" function="internal">
        <lane id=":1420633949_6_0" index="0" disallow="tram rail_urban rail rail_electric ship" speed="13.89" length="5.03" shape="1540.93,8804.84 1542.07,8804.05 1542.68,8803.09 1542.74,8801.96 1542.28,8800.66"/>
    </edge>
    <edge id=":1420633949_7" function="internal">
        <lane id=":1420633949_7_0" index="0" disallow="tram rail_urban rail rail_electric ship" speed="13.89" length="10.38" shape="1540.93,8804.84 1543.65,8803.93 1546.00,8804.10 1547.98,8805.34 1549.60,8807.65"/>
    </edge>
    <edge id=":1420633949_8" function="internal">
        <lane id=":1420633949_8_0" index="0" disallow="tram rail_urban rail rail_electric ship" speed="13.89" length="4.82" shape="1540.93,8804.84 1542.41,8805.02 1543.15,8805.58 1543.14,8806.50 1542.40,8807.79"/>
    </edge>
    <edge id=":1420633950_0" function="internal">
        <lane id=":1420633950_0_0" index="0" disallow="tram rail_urban rail rail_electric ship" speed="13.89" length="9.50" shape="1371.14,8838.14 1366.60,8829.78"/>
    </edge>
    <edge id=":1420633950_1" function="internal">
        <lane id=":1420633950_1_0" index="0" disallow="tram rail_urban rail rail_electric ship" speed="13.89" length="5.25" shape="1371.14,8838.14 1370.13,8835.43 1370.26,8833.07"/>
    </edge>
    <edge id=":1420633950_2" function="internal">
        <lane id=":1420633950_2_0" index="0" disallow="tram rail_urban rail rail_electric ship" speed="13.89" length="2.41" shape="1371.14,8838.14 1371.27,8836.66 1371.80,8835.90"/>
    </edge>
    <edge id=":1420633950_9" function="internal">
        <lane id=":1420633950_9_0" index="0" speed="13.89" length="5.25" shape="1370.26,8833.07 1371.51,8831.07 1373.89,8829.43"/>
    </edge>
    <edge id=":1420633950_10" function="internal">
        <lane id=":1420633950_10_0" index="0" speed="13.89" length="2.41" shape="1371.80,8835.90 1372.72,8835.87 1374.04,8836.57"/>
    </edge>
    <edge id=":1420633950_3" function="internal">
        <lane id=":1420633950_3_0" index="0" disallow="tram rail_urban rail rail_electric ship" speed="13.89" length="5.04" shape="1375.36,8832.38 1374.22,8833.17 1373.61,8834.13 1373.55,8835.26 1374.04,8836.57"/>
    </edge>
    <edge id=":1420633950_4" function="internal">
        <lane id=":1420633950_4_0" index="0" disallow="tram rail_urban rail rail_electric ship" speed="13.89" length="10.33" shape="1375.36,8832.38 1372.64,8833.30 1370.28,8833.17 1368.26,8832.00 1366.60,8829.78"/>
    </edge>
    <edge id=":1420633950_5" function="internal">
        <lane id=":1420633950_5_0" index="0" disallow="tram rail_urban rail rail_electric ship" speed="13.89" length="4.82" shape="1375.36,8832.38 1373.88,8832.20 1373.15,8831.64 1373.15,8830.72 1373.89,8829.43"/>
    </edge>
    <edge id=":1420633950_6" function="internal">
        <lane id=":1420633950_6_0" index="0" disallow="tram rail_urban rail rail_electric ship" speed="13.89" length="5.15" shape="1369.51,8828.21 1370.32,8829.29 1371.33,8829.85 1372.52,8829.90 1373.89,8829.43"/>
    </edge>
    <edge id=":1420633950_7" function="internal">
        <lane id=":1420633950_7_0" index="0" disallow="tram rail_urban rail rail_electric ship" speed="13.89" length="9.50" shape="1369.51,8828.21 1374.04,8836.57"/>
    </edge>
    <edge id=":1420633950_8" function="internal">
        <lane id=":1420633950_8_0" index="0" disallow="tram rail_urban rail rail_electric ship" speed="13.89" length="2.41" shape="1369.51,8828.21 1369.37,8829.69 1368.84,8830.45"/>
    </edge>
    <edge id=":1420633950_11" function="internal">
        <lane id=":1420633950_11_0" index="0" speed="13.89" length="2.41" shape="1368.84,8830.45 1367.92,8830.48 1366.60,8829.78"/>
    </edge>
    <edge id=":1420633951_0" function="internal">
        <lane id=":1420633951_0_0" index="0" disallow="tram rail_urban rail rail_electric ship" speed="13.89" length="3.88" shape="1555.98,8743.82 1552.19,8744.63"/>
    </edge>
    <edge id=":1420633951_1" function="internal">
        <lane id=":1420633951_1_0" index="0" disallow="tram rail_urban rail rail_electric ship" speed="13.89" length="1.96" shape="1555.98,8743.82 1554.79,8742.93 1554.60,8742.49"/>
    </edge>
    <edge id=":1420633951_4" function="internal">
        <lane id=":1420633951_4_0" index="0" speed="13.89" length="2.86" shape="1554.60,8742.49 1554.43,8742.08 1554.89,8741.28 1556.17,8740.53"/>
    </edge>
    <edge id=":1420633951_2" function="internal">
        <lane id=":1420633951_2_0" index="0" disallow="tram rail_urban rail rail_electric ship" speed="13.89" length="5.56" shape="1550.73,8741.67 1556.17,8740.53"/>
    </edge>
    <edge id=":1420633951_3" function="internal">
        <lane id=":1420633951_3_0" index="0" disallow="tram rail_urban rail rail_electric ship" speed="13.89" length="2.82" shape="1550.73,8741.67 1552.20,8741.87 1552.94,8742.42 1552.94,8742.84"/>
    </edge>
    <edge id=":1420633951_5" function="internal">
        <lane id=":1420633951_5_0" index="0" speed="13.89" length="2.00" shape="1552.94,8742.84 1552.93,8743.35 1552.19,8744.63"/>
    </edge>