<?xml version="1.0" encoding="UTF-8"?>

<!-- generated on 06/02/16 10:10:30 by SUMO polyconvert Version 0.26.0
<?xml version="1.0" encoding="UTF-8"?>

<configuration xmlns:xsi="http://www.w3.org/2001/XMLSchema-instance" xsi:noNamespaceSchemaLocation="http://sumo.dlr.de/xsd/polyconvertConfiguration.xsd">

    <input>
        <net-file value="mapcali.net.xml"/>
        <osm-files value="map.osm"/>
        <type-file value="typemap.xml"/>
    </input>

    <output>
        <output-file value="map.poly.xml"/>
    </output>

    <processing>
        <poi-layer-offset value="5"/>
    </processing>

</configuration>
-->

<additional xmlns:xsi="http://www.w3.org/2001/XMLSchema-instance" xsi:noNamespaceSchemaLocation="http://sumo.dlr.de/xsd/additional_file.xsd">
    <location netOffset="-323427.94,-365706.31" convBoundary="-1725.10,-20757.06,33223.34,52884.95" origBoundary="-76.604801,3.119659,-76.290482,3.785937" projParameter="+proj=utm +zone=18 +ellps=WGS84 +datum=WGS84 +units=m +no_defs"/>

    <poly id="106471949" type="historic" color="128,255,128" fill="0" layer="-1.00" shape="6221.85,16165.01 6228.85,16142.94"/>
    <poly id="106471949#1" type="tourism" color="207,245,201" fill="0" layer="-2.00" shape="6221.85,16165.01 6228.85,16142.94"/>
    <poly id="106577877" type="building" color="255,230,230" fill="1" layer="-1.00" shape="3329.83,15581.65 3332.35,15585.27 3339.30,15587.43 3343.12,15586.11 3347.02,15580.96 3345.60,15573.10 3341.18,15569.91 3339.08,15569.85 3335.89,15569.77 3330.81,15573.40 3329.83,15581.65"/>
    <poly id="106577879" type="tourism" color="207,245,201" fill="0" layer="-2.00" shape="5399.20,15492.15 5410.16,15477.40 5428.91,15460.48 5440.70,15448.27 5449.57,15432.39 5446.52,15411.93 5442.98,15386.79"/>
    <poly id="106577882" type="building" color="255,230,230" fill="1" layer="-1.00" shape="3405.43,15529.96 3421.82,15538.67 3431.72,15511.67 3408.90,15508.03 3405.43,15529.96"/>
    <poly id="106577892" type="tourism" color="207,245,201" fill="1" layer="-2.00" shape="3354.55,15718.84 3285.46,15689.11 3244.01,15666.44 3222.47,15622.44 3270.57,15593.56 3292.17,15572.31 3313.77,15551.05 3322.58,15536.47 3331.35,15497.05 3363.64,15490.93 3412.09,15493.58 3442.26,15499.29 3468.17,15508.35 3491.07,15530.75 3555.00,15503.35 3612.93,15526.60 3647.95,15549.63 3617.01,15583.43 3606.31,15601.80 3593.52,15615.73 3569.71,15636.49 3545.00,15652.52 3498.88,15654.14 3467.58,15702.70 3354.55,15718.84"/>
    <poly id="106577893" type="building" color="255,230,230" fill="1" layer="-1.00" shape="3445.51,15554.69 3451.57,15535.59 3455.11,15538.59 3482.69,15556.76 3472.66,15575.57 3445.51,15554.69"/>
    <poly id="106580390" type="building" color="255,230,230" fill="1" layer="-1.00" shape="3521.58,15546.70 3516.09,15530.99 3527.45,15525.88 3528.61,15528.97 3533.53,15542.10 3526.66,15544.75 3521.58,15546.70"/>
    <poly id="107655329" type="leisure" color="207,245,201" fill="1" layer="-2.00" shape="5734.33,12783.31 5749.58,12783.52 5749.93,12758.63 5734.68,12758.42 5734.33,12783.31"/>
    <poly id="107655329#1" type="sport" color="79,230,125" fill="1" layer="-2.00" shape="5734.33,12783.31 5749.58,12783.52 5749.93,12758.63 5734.68,12758.42 5734.33,12783.31"/>
    <poly id="107655330" type="building" color="255,230,230" fill="1" layer="-1.00" shape="5864.33,12854.24 5882.73,12871.99 5911.38,12842.67 5893.92,12825.83 5892.97,12824.92 5864.33,12854.24"/>
    <poly id="107655331" type="leisure" color="207,245,201" fill="1" layer="-2.00" shape="5892.08,12771.06 5909.08,12765.63 5919.75,12798.58 5902.76,12804.01 5892.08,12771.06"/>
    <poly id="107655331#1" type="sport" color="79,230,125" fill="1" layer="-2.00" shape="5892.08,12771.06 5909.08,12765.63 5919.75,12798.58 5902.76,12804.01 5892.08,12771.06"/>
    <poly id="107655333" type="leisure" color="207,245,201" fill="1" layer="-2.00" shape="5753.20,12855.90 5777.28,12856.27 5778.04,12807.97 5753.96,12807.59 5753.20,12855.90"/>
    <poly id="107655333#1" type="sport" color="79,230,125" fill="1" layer="-2.00" shape="5753.20,12855.90 5777.28,12856.27 5778.04,12807.97 5753.96,12807.59 5753.20,12855.90"/>
    <poly id="107655334" type="leisure" color="207,245,201" fill="1" layer="-2.00" shape="5752.98,12883.13 5775.39,12883.10 5775.71,12866.73 5753.20,12866.44 5752.98,12883.13"/>
    <poly id="107655334#1" type="sport" color="79,230,125" fill="1" layer="-2.00" shape="5752.98,12883.13 5775.39,12883.10 5775.71,12866.73 5753.20,12866.44 5752.98,12883.13"/>
    <poly id="107655336" type="leisure" color="207,245,201" fill="1" layer="-2.00" shape="5875.26,13046.29 5843.33,12944.99 5909.98,12924.26 5941.91,13025.56 5875.26,13046.29"/>
    <poly id="107655336#1" type="sport" color="79,230,125" fill="1" layer="-2.00" shape="5875.26,13046.29 5843.33,12944.99 5909.98,12924.26 5941.91,13025.56 5875.26,13046.29"/>
    <poly id="107655337" type="sport" color="79,230,125" fill="1" layer="-2.00" shape="5951.24,13143.29 5976.52,13138.75 5974.24,13126.21 5948.95,13130.75 5951.24,13143.29"/>
    <poly id="107655343" type="building" color="255,230,230" fill="1" layer="-1.00" shape="5822.75,12797.54 5855.39,12763.28 5895.46,12800.98 5882.61,12814.46 5862.81,12835.22 5822.75,12797.54"/>
    <poly id="107655344" type="leisure" color="207,245,201" fill="0" layer="-2.00" shape="5758.61,12665.35 5757.92,12643.11 5822.21,12589.72 5833.35,12587.11 5911.98,12630.28 5872.44,12689.41 5871.42,12696.35 5872.21,12702.13 5873.28,12703.25"/>
    <poly id="107655344#1" type="sport" color="79,230,125" fill="0" layer="-2.00" shape="5758.61,12665.35 5757.92,12643.11 5822.21,12589.72 5833.35,12587.11 5911.98,12630.28 5872.44,12689.41 5871.42,12696.35 5872.21,12702.13 5873.28,12703.25"/>
    <poly id="107655508" type="leisure" color="207,245,201" fill="1" layer="-2.00" shape="6349.50,12706.13 6322.64,12623.10 6431.35,12588.10 6456.39,12676.34 6349.50,12706.13"/>
    <poly id="107656344" type="building" color="255,230,230" fill="1" layer="-1.00" shape="5192.48,7238.66 5199.06,7247.95 5213.42,7237.90 5223.30,7251.83 5234.20,7244.19 5217.74,7220.99 5192.48,7238.66"/>
    <poly id="107656345" type="building" color="255,230,230" fill="1" layer="-1.00" shape="5673.50,7161.47 5681.05,7166.06 5686.05,7157.94 5707.22,7170.81 5710.75,7165.06 5733.41,7178.84 5729.79,7184.71 5750.03,7197.02 5745.13,7204.97 5753.94,7210.33 5762.30,7196.77 5753.75,7191.57 5758.26,7184.24 5738.96,7172.50 5743.77,7164.69 5718.00,7149.02 5713.12,7156.93 5693.24,7144.84 5689.25,7151.31 5682.34,7147.11 5673.50,7161.47"/>
    <poly id="109795087" type="residential" color="235,235,227" fill="1" layer="-3.00" shape="10433.45,19588.38 10529.87,19504.16 10485.58,19429.63 10385.66,19526.89 10433.45,19588.38"/>
    <poly id="109875641" type="landuse" color="194,194,130" fill="0" layer="-3.00" shape="7858.48,16837.52 7825.80,16905.82 7772.53,17025.48"/>
    <poly id="119422357" type="leisure" color="207,245,201" fill="1" layer="-2.00" shape="7177.32,10233.64 7266.80,10228.36 7271.61,10309.03 7182.14,10314.31 7177.32,10233.64"/>
    <poly id="119422357#1" type="sport" color="79,230,125" fill="1" layer="-2.00" shape="7177.32,10233.64 7266.80,10228.36 7271.61,10309.03 7182.14,10314.31 7177.32,10233.64"/>
    <poly id="121751317" type="tourism" color="207,245,201" fill="1" layer="-2.00" shape="4084.54,7183.47 4040.44,7197.75 3993.95,7197.82 3964.14,7197.87 3934.33,7200.05 3909.30,7205.07 3893.80,7197.98 3902.13,7188.49 3925.96,7182.54 3946.21,7170.66 3962.87,7151.68 3984.79,7142.17 4012.92,7137.39 4031.97,7118.41 4042.91,7101.82 4053.40,7101.80 4057.02,7129.03 4061.12,7152.48 4073.78,7171.64 4084.54,7183.47"/>
    <poly id="121758403" type="military" color="153,153,92" fill="0" layer="-3.00" shape="5056.25,8102.21 5047.33,8100.60 5040.25,8100.71 4927.99,8106.17 4782.29,8117.43"/>
    <poly id="121760451" type="tourism" color="207,245,201" fill="1" layer="-2.00" shape="4534.62,7572.61 4534.57,7540.64 4494.28,7542.60 4492.99,7572.98 4534.62,7572.61"/>
    <poly id="121760700" type="leisure" color="207,245,201" fill="1" layer="-2.00" shape="4543.06,7631.81 4540.53,7539.44 4650.21,7536.90 4668.10,7535.69 4667.42,7561.27 4650.25,7564.14 4652.71,7607.95 4673.21,7607.21 4674.20,7625.69 4543.06,7631.81"/>
    <poly id="121815294" type="landuse" color="194,194,130" fill="0" layer="-3.00" shape="3853.33,9651.50 3864.95,9570.37"/>
    <poly id="121820632" type="tourism" color="207,245,201" fill="1" layer="-2.00" shape="4584.55,7117.76 4649.95,7123.72 4632.06,7114.27 4615.34,7097.71 4602.20,7085.89 4616.49,7071.66 4604.56,7065.76 4593.83,7074.06 4583.99,7076.32 4584.55,7117.76"/>
    <poly id="121822508" type="water" color="181,209,209" fill="0" layer="-4.00" shape="3088.84,7577.42 3091.20,7556.10 3098.33,7540.69 3099.48,7515.82 3098.25,7489.77 3100.58,7457.78 3100.53,7428.18 3102.88,7405.68 3095.69,7380.82 3094.46,7358.32 3093.22,7332.26 3088.41,7307.40 3076.49,7306.24 3056.21,7302.72 3041.87,7280.24 3031.09,7251.83 3029.87,7229.34 3041.75,7203.26 3053.63,7179.55 3063.13,7157.04 3059.50,7121.51 3054.68,7089.54 3048.69,7068.25 3051.03,7043.36 3061.73,7023.22 3087.93,7006.59 3111.76,6994.71 3132.00,6979.29 3149.85,6961.49 3164.14,6944.89 3181.96,6910.52 3189.10,6896.30 3202.19,6882.06 3218.86,6870.19 3234.37,6874.91 3240.35,6891.47 3248.72,6908.04 3264.24,6917.50 3283.32,6924.56 3300.02,6922.17 3316.69,6906.75 3328.58,6893.70 3335.69,6867.63 3357.12,6848.66 3385.72,6835.57 3408.36,6824.88 3430.99,6816.56 3450.05,6802.32 3459.55,6780.99 3461.89,6750.19 3460.63,6713.48 3447.46,6676.79 3448.60,6642.44 3472.42,6632.93 3508.20,6632.87 3538.01,6637.56 3565.45,6646.99 3592.88,6658.79 3621.51,6670.59 3654.90,6670.53 3668.01,6665.78 3683.49,6658.64 3698.99,6653.89 3714.49,6652.68 3739.53,6656.19 3752.66,6670.38 3765.80,6683.38 3776.56,6698.77 3792.08,6711.77 3811.14,6705.81 3827.82,6701.05 3839.73,6691.56 3851.64,6682.06 3864.73,6667.83 3876.63,6654.79 3889.74,6648.84 3901.65,6640.54 3923.09,6629.84 3948.11,6620.33 3963.61,6617.94 3982.68,6615.53 4001.74,6604.84 4019.62,6597.71 4041.06,6589.38 4062.51,6585.80 4082.78,6583.40 4101.85,6577.45 4120.91,6571.50 4139.98,6566.73 4155.21,6554.46 4173.33,6545.35 4193.58,6533.48 4213.83,6522.79 4231.70,6512.10 4250.77,6506.15 4269.85,6514.42 4286.59,6545.17 4292.89,6568.45 4296.21,6594.91 4303.38,6610.29 4314.15,6630.40 4330.86,6644.59 4345.19,6658.77 4361.90,6672.96 4373.85,6685.97 4385.78,6695.42 4403.71,6715.53 4416.86,6740.37 4427.62,6764.04 4440.78,6791.27 4456.33,6820.84 4464.72,6851.62 4476.69,6881.22 4474.68,6900.56 4474.36,6913.19 4476.78,6938.05 4474.44,6960.56 4472.09,6985.44 4474.51,7005.56 4486.32,7012.77 4500.74,7006.70 4517.41,6996.03 4537.66,6982.96 4561.48,6963.98 4580.52,6948.55 4604.35,6935.48 4626.98,6928.35 4640.13,6938.99 4650.88,6959.09 4648.53,6978.05 4631.87,6995.85 4612.82,7014.82 4602.11,7030.23 4597.13,7041.14 4607.69,7051.78 4638.67,7057.22 4641.46,7030.16 4662.90,7017.10 4679.58,7009.98 4693.88,7004.03 4711.74,6992.16 4728.43,6989.77 4748.69,6987.37 4776.13,6993.24 4798.78,6996.76 4823.82,6999.09 4842.92,7010.90 4864.39,7020.35 4882.29,7032.16 4897.81,7045.16 4915.70,7052.23 4931.22,7060.50 4951.50,7067.58 4977.72,7062.79 4998.00,7072.24 5015.89,7080.50 5015.92,7094.71 4996.86,7103.03 4979.00,7114.90 4957.55,7124.41 4936.10,7133.92 4919.44,7148.16 4908.73,7162.38 4902.79,7176.60 4896.87,7202.66 4900.49,7227.54 4902.90,7248.84 4911.28,7268.96 4911.32,7290.28 4914.91,7303.30 4918.52,7319.88 4926.89,7334.08 4938.81,7335.24 4950.73,7332.86 4967.42,7331.65 4982.93,7343.47 4991.30,7356.48 4994.91,7381.34 4994.94,7400.29 5002.13,7418.04 5011.69,7432.23 5028.40,7447.61 5041.55,7460.61 5057.04,7461.77 5073.72,7455.82 5099.95,7449.86 5117.82,7448.65 5139.28,7446.25 5157.17,7448.59 5167.92,7466.33 5179.88,7488.81 5192.20,7509.65 5195.78,7515.87 5243.70,7536.77"/>
    <poly id="121834760" type="tourism" color="207,245,201" fill="1" layer="-2.00" shape="4698.73,7677.71 4795.27,7652.69 4800.31,7660.31 4780.69,7669.83 4702.89,7688.65 4698.73,7677.71"/>
    <poly id="122082121" type="tourism" color="207,245,201" fill="1" layer="-2.00" shape="4498.06,7194.47 4529.05,7194.42 4529.35,7229.42 4496.93,7230.00 4498.06,7194.47"/>
    <poly id="122084036" type="tourism" color="207,245,201" fill="1" layer="-2.00" shape="3985.69,7378.89 3977.31,7358.77 3949.90,7365.91 3957.09,7389.58 3985.69,7378.89"/>
    <poly id="122084674" type="tourism" color="207,245,201" fill="1" layer="-2.00" shape="4467.25,7314.14 4474.40,7314.13 4473.24,7329.52 4467.25,7314.14"/>
    <poly id="122084715" type="water" color="181,209,209" fill="0" layer="-4.00" shape="4303.29,6922.41 4329.51,6917.62 4347.40,6915.23 4364.08,6912.83 4378.38,6910.44 4387.91,6908.06 4397.45,6904.49 4406.98,6903.29 4418.90,6899.72 4430.82,6897.33 4442.75,6897.32 4457.05,6896.10 4463.02,6898.47 4474.68,6900.56"/>
    <poly id="122084716" type="water" color="181,209,209" fill="0" layer="-4.00" shape="3486.80,7049.24 3505.85,7025.53 3523.69,7006.55 3537.98,6986.39 3553.43,6963.86 3567.71,6943.70 3579.59,6916.45 3584.32,6893.94 3592.63,6872.61 3599.76,6853.65 3605.68,6833.51 3612.83,6824.02"/>
    <poly id="122115518" type="residential" color="235,235,227" fill="0" layer="-3.00" shape="4593.24,12843.46 4625.82,12790.59 4624.98,12785.41"/>
    <poly id="122391798" type="amenity" color="237,199,199" fill="1" layer="-1.00" shape="6494.60,5938.36 6549.01,5791.71 6875.69,5872.68 6795.73,6131.34 6494.60,5938.36"/>
    <poly id="122404606" type="water" color="181,209,209" fill="0" layer="-4.00" shape="5243.70,7536.77 5251.56,7541.83 5259.01,7546.53 5270.36,7556.61 5291.98,7560.32 5319.64,7561.09 5339.01,7566.76 5357.32,7568.42 5367.81,7569.90 5387.57,7578.15 5400.64,7587.40 5399.55,7594.54 5390.97,7599.49 5369.99,7612.40 5343.39,7619.89 5317.95,7646.34 5303.68,7666.49 5300.13,7683.08 5302.54,7705.58 5313.30,7722.13 5326.43,7731.59 5339.55,7739.86 5353.88,7749.30 5371.78,7757.57 5384.90,7768.21 5394.47,7783.58 5408.37,7787.00"/>
    <poly id="122463628" type="tourism" color="207,245,201" fill="1" layer="-2.00" shape="3394.51,8863.31 3409.78,8834.63 3416.53,8802.93 3415.93,8778.24 3399.84,8759.75 3380.75,8753.86 3356.90,8746.79 3330.66,8748.02 3310.40,8748.05 3288.94,8746.90 3278.24,8763.49 3285.40,8776.52 3296.17,8796.62 3306.93,8816.74 3315.31,8832.12 3321.29,8846.32 3347.52,8848.66 3365.42,8853.36 3377.34,8859.27 3394.51,8863.31"/>
    <poly id="122463711" type="tourism" color="207,245,201" fill="1" layer="-2.00" shape="3454.69,8766.77 3442.74,8754.95 3420.09,8749.05 3397.42,8745.54 3380.72,8739.64 3402.16,8718.30 3422.40,8706.42 3443.87,8707.57 3464.16,8721.75 3482.05,8731.20 3498.77,8748.93 3521.44,8763.10 3548.90,8782.01 3573.95,8793.81 3570.96,8817.72 3543.58,8875.97 3503.52,8871.86 3469.72,8865.21 3429.64,8858.81 3432.17,8848.52 3459.57,8842.55 3482.21,8828.30 3500.07,8815.25 3510.78,8802.21 3503.59,8780.90 3482.14,8782.12 3454.69,8766.77"/>
    <poly id="127467491" type="tourism" color="207,245,201" fill="0" layer="-2.00" shape="6218.05,17395.98 6247.68,17469.21 6251.58,17485.92"/>
    <poly id="128574660" type="leisure" color="207,245,201" fill="0" layer="-2.00" shape="7607.54,7253.72 7601.70,7073.52 7596.81,7025.76"/>
    <poly id="128574661" type="leisure" color="207,245,201" fill="0" layer="-2.00" shape="7683.63,7478.46 7682.13,7438.02 7680.82,7410.58 7678.06,7357.40 7677.60,7306.42 7675.43,7254.05 7673.61,7202.66 7673.24,7150.85 7670.91,7098.57 7669.12,7056.30 7667.77,7031.22"/>
    <poly id="128574678" type="leisure" color="207,245,201" fill="0" layer="-2.00" shape="7425.98,7252.39 7425.31,7017.09"/>
    <poly id="128574679" type="leisure" color="207,245,201" fill="0" layer="-2.00" shape="7470.38,7253.80 7470.46,7170.23 7470.61,7017.00"/>
    <poly id="128574680" type="leisure" color="207,245,201" fill="0" layer="-2.00" shape="7440.53,6685.50 7482.66,6697.26"/>
    <poly id="128691509" type="landuse" color="194,194,130" fill="0" layer="-3.00" shape="2942.07,11304.79 2920.91,11314.96"/>
    <poly id="129804870" type="tourism" color="207,245,201" fill="0" layer="-2.00" shape="5171.58,15405.36 5181.09,15411.33 5234.13,15409.01 5271.82,15410.16"/>
    <poly id="129872654" type="tourism" color="207,245,201" fill="0" layer="-2.00" shape="10750.80,12193.40 10820.04,12288.61 10840.63,12316.91 10860.99,12344.90 10881.86,12373.60 10902.47,12401.94 10922.68,12429.72 10943.78,12458.75 10964.40,12487.10 10985.35,12515.90 10998.51,12533.39"/>
    <poly id="130001562" type="residential" color="235,235,227" fill="0" layer="-3.00" shape="4913.69,11793.50 4875.37,11757.94 4833.79,11706.32 4805.40,11668.71"/>
    <poly id="130001563" type="residential" color="235,235,227" fill="0" layer="-3.00" shape="4700.82,11610.50 4717.81,11609.30"/>
    <poly id="130001564" type="tourism" color="207,245,201" fill="0" layer="-2.00" shape="5174.49,11415.44 5150.02,11422.36 5144.43,11432.45"/>
    <poly id="130001565" type="tourism" color="207,245,201" fill="0" layer="-2.00" shape="5225.86,11520.84 5144.43,11432.45"/>
    <poly id="130001665" type="tourism" color="207,245,201" fill="0" layer="-2.00" shape="3911.15,10897.25 3898.61,10789.25"/>
    <poly id="130100847" type="tourism" color="207,245,201" fill="0" layer="-2.00" shape="6593.81,8993.34 6465.36,8992.95"/>
    <poly id="130100848" type="tourism" color="207,245,201" fill="0" layer="-2.00" shape="6703.96,8963.54 6593.91,8949.03 6465.23,8938.77"/>
    <poly id="130101972" type="industrial" color="209,209,204" fill="0" layer="-3.00" shape="6929.94,7050.01 6931.33,7180.33 6931.46,7192.75 6933.44,7378.66 6932.18,7384.23 6929.58,7387.43"/>
    <poly id="130102148" type="tourism" color="207,245,201" fill="0" layer="-2.00" shape="6185.68,8711.03 5987.27,8582.84 5925.50,8541.25 5830.19,8503.03 5822.89,8500.32 5792.45,8497.37"/>
    <poly id="132736495" type="building" color="255,230,230" fill="1" layer="-1.00" shape="7681.44,21675.52 7675.22,21590.89 7708.92,21588.42 7715.15,21673.06 7681.44,21675.52"/>
    <poly id="132736496" type="industrial" color="209,209,204" fill="1" layer="-3.00" shape="7622.68,21712.11 8072.84,21689.70 8060.80,21479.80 7682.02,21502.15 7673.15,21549.92 7652.56,21545.51 7622.68,21712.11"/>
    <poly id="136712993" type="water" color="181,209,209" fill="0" layer="-4.00" shape="5394.30,16311.41 5406.80,16311.62 5441.93,16321.75 5456.02,16329.32 5474.83,16347.26 5484.76,16358.47 5493.13,16375.89 5499.94,16398.68 5501.40,16441.67 5526.21,16517.28 5531.98,16532.29 5534.08,16541.79 5533.60,16568.55 5538.14,16579.08 5554.00,16600.64 5554.87,16607.89 5555.78,16635.18 5558.59,16643.47 5563.46,16647.59 5573.91,16655.69 5583.47,16661.21 5593.74,16670.86 5597.76,16678.63 5602.99,16687.08 5606.83,16697.44 5610.50,16710.21 5615.90,16721.59 5623.58,16732.64 5647.52,16796.61 5652.76,16816.63 5657.69,16848.74 5663.64,16877.75 5669.23,16893.97 5681.07,16904.31 5681.49,16954.39 5669.72,16986.87 5667.66,16996.55 5672.54,17001.03 5672.90,17012.09 5660.75,17025.92 5658.15,17030.76 5660.80,17051.83"/>
    <poly id="136721075" type="landuse" color="194,194,130" fill="0" layer="-3.00" shape="4550.79,11965.80 4571.41,11965.27"/>
    <poly id="136793501" type="tourism" color="207,245,201" fill="0" layer="-2.00" shape="5437.50,16646.84 5438.98,16668.17 5436.99,16673.37 5420.92,16699.94 5407.38,16711.46 5398.40,16721.87 5391.97,16733.71 5389.54,16742.01 5388.02,16760.37 5388.82,16775.40 5393.17,16785.90 5403.45,16789.44 5412.40,16791.51 5419.86,16797.41 5420.79,16816.21 5417.12,16826.55 5417.47,16834.18 5412.85,16862.39 5413.43,16876.65 5417.79,16892.34 5416.80,16901.08 5408.74,16929.62 5402.32,16944.78 5389.79,16960.72 5375.61,16991.26 5372.74,17001.22 5371.10,17019.03 5359.14,17041.16 5354.40,17066.60 5354.09,17077.11 5359.91,17103.08 5362.99,17155.05 5360.40,17166.74"/>
    <poly id="136793503" type="building" color="255,230,230" fill="1" layer="-1.00" shape="4885.91,15419.09 4890.60,15343.20 4967.88,15347.89 4967.18,15359.11 5018.55,15362.23 5014.55,15426.92 4885.91,15419.09"/>
    <poly id="136794748" type="unknown" color="51,128,255" fill="0" layer="-1.00" shape="4925.71,19627.03 4924.50,19645.90 4919.30,19661.50 4892.82,19710.86 4887.29,19724.47 4883.12,19755.55 4883.91,19765.17 4889.16,19783.07 4896.19,19798.10 4916.91,19832.89 4924.26,19842.28 4957.88,19878.05 5001.04,19912.48"/>
    <poly id="136795262" type="unknown" color="51,128,255" fill="0" layer="-1.00" shape="5011.87,19915.58 5012.22,19952.93 5017.14,19971.72 5034.64,20006.41 5044.99,20016.79 5053.56,20021.64 5070.23,20028.14 5094.80,20034.73 5108.25,20040.46 5116.82,20045.20 5127.28,20054.03 5137.83,20068.70"/>
    <poly id="136795537" type="historic" color="128,255,128" fill="0" layer="-1.00" shape="6306.64,16174.95 6304.48,16180.59 6284.30,16213.01 6258.20,16253.64"/>
    <poly id="137063067" type="water" color="181,209,209" fill="1" layer="-4.00" shape="5007.48,4099.95 5001.70,4100.37 4999.62,4093.00 5010.24,4021.66 5024.26,4016.31 5034.99,4020.80 5054.39,4020.77 5071.73,4029.76 5077.96,4055.16 5078.03,4100.25 5076.81,4107.22 5064.86,4117.08 5052.47,4111.77 5001.31,4113.89 5001.71,4107.34 5011.60,4103.22 5007.48,4099.95"/>
    <poly id="137063069" type="leisure" color="207,245,201" fill="1" layer="-2.00" shape="4831.87,4309.87 4831.72,4288.97 4883.71,4288.60 4883.87,4309.50 4831.87,4309.87"/>
    <poly id="137063070" type="water" color="181,209,209" fill="1" layer="-4.00" shape="4651.43,4233.41 4665.47,4240.76 4683.58,4207.94 4668.71,4193.21 4651.43,4233.41"/>
    <poly id="137063071" type="water" color="181,209,209" fill="1" layer="-4.00" shape="5026.02,4083.52 5026.85,4091.31 5021.91,4096.64 5013.24,4097.07 5009.93,4091.74 5010.34,4082.73 5016.51,4079.03 5023.13,4079.84 5026.02,4083.52"/>
    <poly id="138139140" type="tourism" color="207,245,201" fill="0" layer="-2.00" shape="5942.69,16066.53 5948.37,16049.32 5956.16,16029.03 5961.20,16018.51"/>
    <poly id="138139141" type="tourism" color="207,245,201" fill="1" layer="-2.00" shape="5160.06,15777.80 5183.13,15752.75 5206.31,15772.40 5185.83,15800.55 5160.06,15777.80"/>
    <poly id="138778865" type="leisure" color="207,245,201" fill="1" layer="-2.00" shape="9889.42,5900.18 9895.04,5480.77 9420.35,5360.70 9414.67,5628.40 9889.42,5900.18"/>
    <poly id="138778870" type="forest" color="140,196,107" fill="1" layer="-4.00" shape="12406.69,3656.72 12386.39,3640.18 12328.34,3607.28 12251.98,3567.12 12219.36,3559.90 12129.96,3569.50 12096.98,3564.99 12027.81,3547.33 11971.36,3549.61 12014.58,3479.84 12030.01,3432.45 12018.82,3401.50 12006.10,3386.30 11602.72,3397.39 11585.30,3421.28 11607.96,3431.90 11662.37,3417.44 11698.16,3429.23 11750.99,3403.27 11760.10,3403.07 11829.26,3407.71 11840.43,3419.71 11904.42,3438.39 11874.67,3471.60 11856.14,3561.80 11841.88,3589.06 11811.67,3599.59 11781.93,3638.72 11787.96,3689.63 11833.28,3697.85 11889.30,3682.38 11908.81,3697.92 11937.44,3709.71 11961.32,3734.55 11968.10,3758.04 12015.78,3759.15 12046.69,3696.35 12071.70,3676.18 12138.47,3684.37 12244.58,3683.02 12283.94,3697.17 12349.53,3705.37 12405.54,3685.15 12419.04,3669.91 12406.69,3656.72"/>
    <poly id="138778886" type="water" color="181,209,209" fill="1" layer="-4.00" shape="11326.93,3927.18 11326.98,3959.16 11327.19,4095.35 11298.63,4134.48 11289.15,4174.75 11290.42,4222.13 11338.64,4300.40 11291.92,4427.00 11283.62,4457.81 11305.10,4474.35 11305.44,4421.23 11362.16,4364.13 11373.22,4306.26 11316.93,4206.87 11314.06,4144.51 11343.90,4108.36 11349.02,4071.81 11344.80,3921.24 11326.93,3927.18"/>
    <poly id="138778979" type="landuse" color="194,194,130" fill="1" layer="-3.00" shape="8306.60,6001.93 8307.73,5960.48 8289.84,5956.96 8269.99,5955.97 8265.25,5976.12 8277.22,6003.34 8292.72,6008.05 8306.60,6001.93"/>
    <poly id="138778998" type="water" color="181,209,209" fill="1" layer="-4.00" shape="11418.99,4887.50 11430.11,4863.97 11425.29,4840.29 11408.16,4821.19 11396.64,4804.80 11398.57,4782.12 11390.58,4744.42 11384.15,4712.27 11376.44,4681.85 11355.40,4619.94 11331.41,4565.68 11323.03,4541.76 11312.71,4504.13 11305.11,4482.65 11294.38,4483.85 11308.75,4522.90 11317.16,4560.79 11332.75,4619.98 11351.11,4660.40 11372.23,4713.47 11380.61,4740.70 11387.84,4789.25 11372.38,4812.95 11387.91,4835.43 11412.98,4856.71 11418.99,4887.50"/>
    <poly id="138779043" type="landuse" color="194,194,130" fill="1" layer="-3.00" shape="11522.79,6506.22 11514.43,6499.13 11303.70,6688.93 11310.10,6698.58 11522.79,6506.22"/>
    <poly id="138779044" type="water" color="181,209,209" fill="1" layer="-4.00" shape="11401.35,5045.03 11406.48,5006.11 11426.66,4952.80 11411.15,4948.08 11391.71,4975.18 11376.22,4985.85 11376.25,5008.35 11385.04,5021.55 11401.35,5045.03"/>
    <poly id="138779074" type="forest" color="140,196,107" fill="1" layer="-4.00" shape="11765.73,3175.68 11746.73,3232.56 11720.57,3276.42 11661.38,3279.05 11604.89,3255.27 11578.62,3225.71 11569.00,3174.80 11566.51,3096.64 11579.58,3071.75 11595.07,3061.07 11579.97,3047.05 11562.83,3031.51 11529.40,2999.58 11499.96,2969.01 11489.20,2941.79 11482.75,2895.44 11496.22,2864.80 11517.67,2849.37 11572.05,2824.24 11667.60,2936.60 11700.29,2984.11 11671.73,3025.60 11650.29,3036.29 11648.63,3046.83 11663.45,3068.24 11704.03,3097.79 11727.91,3123.80 11749.00,3148.47 11765.73,3175.68"/>
    <poly id="138779145" type="landuse" color="194,194,130" fill="1" layer="-3.00" shape="11273.68,3402.62 11263.31,3367.29 11259.66,3277.74 11218.72,3052.34 11207.99,3051.17 11249.96,3279.60 11246.57,3337.71 11247.40,3370.68 11258.18,3405.02 11273.68,3402.62"/>
    <poly id="138779286" type="landuse" color="194,194,130" fill="1" layer="-3.00" shape="10952.79,4079.34 10937.72,4083.09 10922.22,4083.11 10907.91,4076.04 10889.60,4073.51 10861.41,4082.02 10844.32,4090.16 10843.14,4104.37 10850.74,4118.75 10872.98,4122.10 10913.51,4119.66 10949.26,4108.96 10967.12,4095.89 10962.76,4085.42 10952.79,4079.34"/>
    <poly id="138779295" type="water" color="181,209,209" fill="1" layer="-4.00" shape="11576.16,6321.40 11472.93,6373.84 11356.61,6199.75 11369.97,6089.78 11401.66,6031.52 11416.86,5965.92 11418.18,5921.36 11273.85,5598.46 11226.10,5562.99 11211.34,5534.42 11205.34,5507.19 11209.29,5482.49 11212.82,5452.88 11221.92,5437.29 11276.78,5450.23 11292.33,5479.82 11362.81,5569.72 11379.59,5634.83 11405.91,5694.00 11429.91,5795.81 11439.56,5868.03 11488.48,5896.39 11576.16,6321.40"/>
    <poly id="138779376" type="amenity" color="237,199,199" fill="1" layer="-1.00" shape="8420.50,5641.74 8391.29,6029.04 8239.08,6015.24 8267.13,5650.44 8420.50,5641.74"/>
    <poly id="138779376#1" type="building" color="255,230,230" fill="1" layer="-1.00" shape="8420.50,5641.74 8391.29,6029.04 8239.08,6015.24 8267.13,5650.44 8420.50,5641.74"/>
    <poly id="138779392" type="building" color="255,230,230" fill="1" layer="-1.00" shape="8674.61,5755.03 8561.37,5762.31 8579.04,5630.83 8700.43,5614.14 8717.35,5673.31 8674.61,5755.03"/>
    <poly id="138779401" type="water" color="181,209,209" fill="0" layer="-4.00" shape="11305.10,4474.35 11305.08,4461.33 11305.44,4421.23 11362.16,4364.13 11368.45,4302.72 11344.12,4252.83 11317.04,4211.61 11316.93,4206.87 11315.62,4150.96 11343.90,4108.36 11349.02,4071.81 11344.80,3921.24 11345.69,3908.51 11348.30,3871.49 11347.30,3718.90 11326.45,3612.16 11327.56,3560.05 11314.80,3517.62 11313.10,3461.78 11294.38,3415.80 11268.15,3415.84 11282.11,3459.45 11298.07,3495.14 11309.93,3546.13 11318.06,3577.83 11294.29,3631.16 11328.97,3703.35 11329.00,3724.67 11323.22,3837.18 11336.75,3845.63 11310.14,3865.63 11321.33,3888.29 11320.94,3911.80 11345.69,3908.51"/>
    <poly id="144607128" type="building" color="255,230,230" fill="1" layer="-1.00" shape="9653.65,4451.29 9498.97,4304.03 9511.57,4290.97 9666.25,4438.25 9653.65,4451.29"/>
    <poly id="144607137" type="building" color="255,230,230" fill="1" layer="-1.00" shape="9800.63,4578.46 9788.71,4585.73 9705.94,4447.30 9715.62,4440.47 9800.63,4578.46"/>
    <poly id="144607138" type="building" color="255,230,230" fill="1" layer="-1.00" shape="9501.46,4433.78 9590.34,4516.61 9579.09,4528.52 9490.20,4445.70 9501.46,4433.78"/>
    <poly id="144607140" type="building" color="255,230,230" fill="1" layer="-1.00" shape="9735.50,4683.96 9720.92,4692.58 9626.81,4535.49 9641.38,4526.88 9735.50,4683.96"/>
    <poly id="144607141" type="building" color="255,230,230" fill="1" layer="-1.00" shape="9631.45,4479.97 9502.36,4358.25 9491.02,4370.12 9620.12,4491.84 9631.45,4479.97"/>
    <poly id="144607144" type="building" color="255,230,230" fill="1" layer="-1.00" shape="9651.02,4521.34 9667.44,4512.22 9749.16,4657.56 9732.74,4666.68 9651.02,4521.34"/>
    <poly id="144607147" type="building" color="255,230,230" fill="1" layer="-1.00" shape="9714.34,4693.31 9698.43,4702.70 9605.68,4547.52 9621.59,4538.14 9714.34,4693.31"/>
    <poly id="144607148" type="building" color="255,230,230" fill="1" layer="-1.00" shape="8773.75,4344.36 8805.83,4277.99 8789.13,4274.47 8754.66,4337.28 8773.75,4344.36"/>
    <poly id="144607149" type="building" color="255,230,230" fill="1" layer="-1.00" shape="8706.91,4295.91 8743.78,4242.56 8728.28,4239.03 8693.78,4292.37 8706.91,4295.91"/>
    <poly id="144607152" type="building" color="255,230,230" fill="1" layer="-1.00" shape="9771.85,4611.48 9789.61,4599.74 9784.88,4592.67 9780.86,4595.32 9767.12,4604.41 9771.85,4611.48"/>
    <poly id="144607165" type="building" color="255,230,230" fill="1" layer="-1.00" shape="8238.97,5467.89 8232.85,5366.05 8217.35,5361.34 8222.29,5469.10 8238.97,5467.89"/>
    <poly id="144607171" type="building" color="255,230,230" fill="1" layer="-1.00" shape="9570.74,4538.74 9483.39,4455.99 9470.92,4468.98 9558.27,4551.73 9570.74,4538.74"/>
    <poly id="144607172" type="building" color="255,230,230" fill="1" layer="-1.00" shape="8661.57,4273.48 8694.87,4221.32 8679.36,4213.05 8647.25,4271.13 8661.57,4273.48"/>